REMARK  16 active torsions:
REMARK  status: ('A' for Active; 'I' for Inactive)
REMARK    1  A    between atoms: C1_1  and  C2_4 
REMARK    2  A    between atoms: C1_1  and  C3_6 
REMARK    3  A    between atoms: C2_4  and  C4_9 
REMARK    4  A    between atoms: C2_4  and  N2_34 
REMARK    5  A    between atoms: C3_6  and  N1_14 
REMARK    6  A    between atoms: C4_9  and  S1_12 
REMARK    7  A    between atoms: S1_12  and  C5_13 
REMARK    8  A    between atoms: N2_34  and  C17_41 
REMARK    9  A    between atoms: C14_37  and  S2_45 
REMARK   10  A    between atoms: C16_40  and  N7_103 
REMARK   11  A    between atoms: S2_45  and  N6_98 
REMARK   12  A    between atoms: C21_52  and  C25_58 
REMARK   13  A    between atoms: C22_53  and  C31_68 
REMARK   14  A    between atoms: C31_68  and  N3_71 
REMARK   15  A    between atoms: N4_79  and  C36_86 
REMARK   16  A    between atoms: C42_97  and  N6_98 
ROOT
ATOM      1  C36 1E9 A   1      10.659  24.412   8.479  0.00  0.00     0.031 A 
ATOM      2  C37 1E9 A   1      11.515  25.491   8.132  0.00  0.00     0.055 A 
ATOM      3  C38 1E9 A   1      12.618  22.940   8.857  0.00  0.00     0.019 A 
ATOM      4  C39 1E9 A   1      11.220  23.147   8.822  0.00  0.00     0.030 A 
ATOM      5  C40 1E9 A   1      13.436  24.029   8.523  0.00  0.00     0.035 A 
ATOM      6  C41 1E9 A   1      12.897  25.259   8.178  0.00  0.00     0.098 A 
ATOM      7  S3  1E9 A   1      14.230  26.345   7.828  0.00  0.00     0.286 S 
ATOM      8  N5  1E9 A   1      15.407  25.222   8.149  0.00  0.00    -0.140 NA
ATOM      9  C42 1E9 A   1      14.907  24.079   8.492  0.00  0.00     0.162 A 
ATOM     10  O3  1E9 A   1      14.253  26.629   6.379  0.00  0.00    -0.198 OA
ATOM     11  O4  1E9 A   1      14.260  27.469   8.775  0.00  0.00    -0.198 OA
ENDROOT
BRANCH   9  12
ATOM     12  N6  1E9 A   1      15.624  22.935   8.812  0.00  0.00    -0.263 N 
ATOM     13  H6  1E9 A   1      15.141  22.037   8.802  1.00  0.00     0.180 HD
BRANCH  12  14
ATOM     14  S2  1E9 A   1      17.272  22.968   9.219  0.00  0.00     0.264 S 
ATOM     15  O1  1E9 A   1      17.520  21.618   9.748  0.00  0.00    -0.200 OA
ATOM     16  O2  1E9 A   1      17.956  23.494   8.019  0.00  0.00    -0.200 OA
BRANCH  14  17
ATOM     17  C14 1E9 A   1      17.440  24.138  10.548  0.00  0.00     0.081 A 
ATOM     18  C13 1E9 A   1      17.796  25.468  10.284  0.00  0.00     0.018 A 
ATOM     19  C18 1E9 A   1      17.907  26.355  11.362  0.00  0.00     0.056 A 
ATOM     20  C17 1E9 A   1      17.661  25.939  12.697  0.00  0.00     0.075 A 
ATOM     21  C16 1E9 A   1      17.284  24.586  12.942  0.00  0.00     0.131 A 
ATOM     22  C15 1E9 A   1      17.188  23.693  11.853  0.00  0.00     0.063 A 
BRANCH  20  23
ATOM     23  N2  1E9 A   1      17.773  26.850  13.691  0.00  0.00    -0.282 NA
BRANCH  23  24
ATOM     24  C2  1E9 A   1      18.114  28.264  13.531  0.00  0.00     0.120 C 
BRANCH  24  25
ATOM     25  C1  1E9 A   1      18.528  28.919  14.866  0.00  0.00     0.056 C 
BRANCH  25  26
ATOM     26  C3  1E9 A   1      19.855  28.421  15.468  0.00  0.00     0.236 C 
BRANCH  26  27
ATOM     27  N1  1E9 A   1      20.067  29.016  16.791  0.00  0.00    -0.079 N 
ATOM     28  C6  1E9 A   1      21.351  28.569  17.321  0.00  0.00     0.269 C 
ATOM     29  C7  1E9 A   1      20.037  30.479  16.739  0.00  0.00     0.269 C 
ATOM     30  H1  1E9 A   1      19.327  28.696  17.415  1.00  0.00     0.278 HD
ENDBRANCH  26  27
ENDBRANCH  25  26
ENDBRANCH  24  25
BRANCH  24  31
ATOM     31  C4  1E9 A   1      16.950  29.055  12.875  0.00  0.00     0.107 C 
BRANCH  31  32
ATOM     32  S1  1E9 A   1      15.312  29.001  13.698  0.00  0.00    -0.128 SA
BRANCH  32  33
ATOM     33  C5  1E9 A   1      14.589  27.447  13.311  0.00  0.00     0.000 A 
ATOM     34  C8  1E9 A   1      14.527  26.437  14.288  0.00  0.00     0.018 A 
ATOM     35  C9  1E9 A   1      13.943  25.198  13.958  0.00  0.00     0.001 A 
ATOM     36  C10 1E9 A   1      13.417  24.984  12.667  0.00  0.00     0.000 A 
ATOM     37  C11 1E9 A   1      13.483  26.001  11.693  0.00  0.00     0.001 A 
ATOM     38  C12 1E9 A   1      14.067  27.241  12.017  0.00  0.00     0.018 A 
ENDBRANCH  32  33
ENDBRANCH  31  32
ENDBRANCH  24  31
ENDBRANCH  23  24
ENDBRANCH  20  23
BRANCH  21  39
ATOM     39  N7  1E9 A   1      17.020  24.041  14.290  0.00  0.00    -0.113 N 
ATOM     40  O5  1E9 A   1      17.147  24.793  15.251  0.00  0.00    -0.532 OA
ATOM     41  O6  1E9 A   1      16.641  22.883  14.396  0.00  0.00    -0.532 OA
ENDBRANCH  21  39
ENDBRANCH  14  17
ENDBRANCH  12  14
ENDBRANCH   9  12
BRANCH   1  42
ATOM     42  N4  1E9 A   1       9.311  24.547   8.485  0.00  0.00    -0.378 N 
ATOM     43  C33 1E9 A   1       8.430  23.373   8.667  0.00  0.00     0.150 C 
ATOM     44  C32 1E9 A   1       7.002  23.750   9.147  0.00  0.00     0.255 C 
ATOM     45  N3  1E9 A   1       6.434  24.711   8.191  0.00  0.00    -0.064 N 
ATOM     46  C35 1E9 A   1       7.230  25.946   8.285  0.00  0.00     0.255 C 
ATOM     47  H3  1E9 A   1       6.532  24.331   7.250  1.00  0.00     0.280 HD
ATOM     48  C34 1E9 A   1       8.638  25.617   7.736  0.00  0.00     0.150 C 
BRANCH  45  49
ATOM     49  C31 1E9 A   1       5.008  24.953   8.454  0.00  0.00     0.274 C 
BRANCH  49  50
ATOM     50  C22 1E9 A   1       4.263  23.622   8.536  0.00  0.00    -0.021 A 
ATOM     51  C21 1E9 A   1       3.724  23.141   9.769  0.00  0.00    -0.018 A 
ATOM     52  C20 1E9 A   1       3.061  21.889   9.783  0.00  0.00     0.013 A 
ATOM     53  C19 1E9 A   1       2.955  21.108   8.609  0.00  0.00     0.001 A 
ATOM     54  C24 1E9 A   1       3.515  21.582   7.400  0.00  0.00     0.001 A 
ATOM     55  C23 1E9 A   1       4.167  22.832   7.362  0.00  0.00     0.010 A 
BRANCH  51  56
ATOM     56  C25 1E9 A   1       3.749  23.843  11.071  0.00  0.00    -0.025 A 
ATOM     57  C26 1E9 A   1       3.143  25.114  11.238  0.00  0.00     0.014 A 
ATOM     58  C27 1E9 A   1       3.139  25.756  12.498  0.00  0.00     0.024 A 
ATOM     59  C28 1E9 A   1       3.735  25.125  13.607  0.00  0.00     0.034 A 
ATOM     60  C29 1E9 A   1       4.347  23.861  13.460  0.00  0.00     0.024 A 
ATOM     61 CL1  1E9 A   1       3.725  25.900  15.151  0.00  0.00    -0.084 Cl
ATOM     62  C30 1E9 A   1       4.346  23.219  12.197  0.00  0.00     0.014 A 
ENDBRANCH  51  56
ENDBRANCH  49  50
ENDBRANCH  45  49
ENDBRANCH   1  42
TORSDOF 16
